*Heading
** Job name: job1 Model name: Model-1
** Generated by: Abaqus/CAE 6.14-1
*Preprint, echo=NO, model=NO, history=NO, contact=NO
**
** PARTS
**
*Part, name=Part-1
*Node
      1,           1.,           1.,           2.
      2,           1.,          -1.,           2.
      3,           1.,           1.,           0.
      4,           1.,          -1.,           0.
      5,          -1.,           1.,           2.
      6,          -1.,          -1.,           2.
      7,          -1.,           1.,           0.
      8,          -1.,          -1.,           0.
*Element, type=C3D8
1, 5, 6, 8, 7, 1, 2, 4, 3
*Nset, nset=Set-1, generate
 1,  8,  1
*Elset, elset=Set-1
 1,
** Section: Section-1
*Solid Section, elset=Set-1, controls=EC-1, material=Material-1
,
*End Part
**  
**
** ASSEMBLY
**
*Assembly, name=Assembly
**  
*Instance, name=Part-1-1, part=Part-1
*End Instance
**  
*Nset, nset=Set-1, instance=Part-1-1, generate
 2,  6,  2
*Elset, elset=Set-1, instance=Part-1-1
 1,
*Nset, nset=Set-2, instance=Part-1-1, generate
 2,  8,  2
*Elset, elset=Set-2, instance=Part-1-1
 1
 *Elset, elset=outputElements, internal, instance=Part-1-1
 1,
*Nset, nset=Set-3, instance=Part-1-1
 1,
*End Assembly
** 
** ELEMENT CONTROLS
** 
*Section Controls, name=EC-1, DISTORTION CONTROL=NO
1., 1., 1.
** 
** MATERIALS
** 
*Material, name=Material-1
*Density
 78.5,
*Elastic
210000., 0.3
** 
** BOUNDARY CONDITIONS
** 
** Name: BC-1 Type: Displacement/Rotation
*Boundary
Set-2, 1, 1
Set-2, 2, 2
Set-2, 3, 3
** ----------------------------------------------------------------
** 
** STEP: loading
** 
*Step, name=loading, nlgeom=NO
*Static
1., 1., 1e-05, 1.
** 
** LOADS
** 
** Name: Load-1   Type: Concentrated force
*Cload
Set-3, 1, 100.
** 
** OUTPUT REQUESTS
** 
*Restart, write, frequency=0
** 
** FIELD OUTPUT: F-Output-2
** 
*Output, field
*Node Output
U, UR, UT, V, VR, VT
*Element Output, directions=YES
ALPHA, ALPHAN, CS11, CTSHR, MISES, MISESMAX, MISESONLY, PRESSONLY, PS, S, SSAVG, TRIAX, TSHR, VS
** 
** FIELD OUTPUT: F-Output-1
** 
*Output, field, variable=PRESELECT
** 
** HISTORY OUTPUT: H-Output-1
** 
*Output, history, variable=PRESELECT
** --------------- STIFFNESS MATRICES ---------------
*ELEMENT MATRIX OUTPUT,
ELSET=outputElements, STIFFNESS=YES, MASS=NO, OUTPUT FILE=USER DEFINED, FILE NAME=hexa8_cube_stiffness_matrices
** ----------------   FIELD OUTPUT   ----------------
*NODE PRINT, GLOBAL=YES, FREQUENCY=1
U
*EL PRINT, POSITION=INTEGRATION POINTS, FREQUENCY=1
E
*EL PRINT, POSITION=INTEGRATION POINTS, FREQUENCY=1
S
*EL PRINT, POSITION=AVERAGED AT NODES, FREQUENCY=1
E
*EL PRINT, POSITION=AVERAGED AT NODES, FREQUENCY=1
S
**
*End Step
