*Heading
** Job name: quad8_test0 Model name: Model-1
** Generated by: Abaqus/CAE 6.14-1
*Preprint, echo=NO, model=NO, history=NO, contact=NO
**
** PARTS
**
*Part, name=Part-1
*Node
      1,  0.7,  2.0
      2,  0.2,  0.3
      3,  2.0,  0.9
      4,  3.0,  2.7
	  5,  0.7,  1.1
	  6,  1.3,  0.1
	  7,  2.1,  1.9
	  8,  1.8,  2.5
*Element, type=CPS8
1, 1, 2, 3, 4, 5, 6, 7, 8
*Nset, nset=Set-1, generate
 1,  8,  1
*Elset, elset=Set-1
 1,
** Section: Section-1
*Solid Section, elset=Set-1, material=Material-1
1.,
*End Part
**  
**
** ASSEMBLY
**
*Assembly, name=Assembly
**  
*Instance, name=Part-1-1, part=Part-1
*End Instance
**  
*Nset, nset=Set-1, instance=Part-1-1
 1, 2
*Elset, elset=Set-1, instance=Part-1-1
 1,
*Nset, nset=Set-2, instance=Part-1-1
 4,
*Elset, elset=outputElements, internal, instance=Part-1-1
 1,
*End Assembly
** 
** MATERIALS
** 
*Material, name=Material-1
*Density
 78.5,
*Elastic
210000., 0.3
** 
** BOUNDARY CONDITIONS
** 
** Name: BC-1 Type: Displacement/Rotation
*Boundary
Set-1, 1, 1
Set-1, 2, 2
** ----------------------------------------------------------------
** 
** STEP: loads
** 
*Step, name=loads, nlgeom=NO
*Static
1., 1., 1e-05, 1.
** 
** LOADS
** 
** Name: Load-1   Type: Concentrated force
*Cload
Set-2, 2, -500.
** 
** OUTPUT REQUESTS
** 
*Restart, write, frequency=0
** 
** FIELD OUTPUT: F-Output-1
** 
*Output, field
*Node Output
U, 
*Element Output, directions=YES
E, MISES, S
** 
** HISTORY OUTPUT: H-Output-1
** 
*Output, history, variable=PRESELECT
**
** --------------- STIFFNESS MATRICES ---------------
*ELEMENT MATRIX OUTPUT,
ELSET=outputElements, STIFFNESS=YES, MASS=NO, OUTPUT FILE=USER DEFINED, FILE NAME=quad8_test0_stiffness_matrices
** ----------------   FIELD OUTPUT   ----------------
*NODE PRINT, GLOBAL=YES, FREQUENCY=1
U
*EL PRINT, POSITION=INTEGRATION POINTS, FREQUENCY=1
E
*EL PRINT, POSITION=INTEGRATION POINTS, FREQUENCY=1
S
*EL PRINT, POSITION=AVERAGED AT NODES, FREQUENCY=1
E
*EL PRINT, POSITION=AVERAGED AT NODES, FREQUENCY=1
S
**
*End Step
** ----------------------------------------------------------------
** 
** STEP: modal
** 
*Step, name=modal, nlgeom=NO, perturbation
*Frequency, eigensolver=Lanczos, acoustic coupling=on, normalization=displacement
2, , , , , 
** 
** OUTPUT REQUESTS
** 
*Restart, write, frequency=0
** 
** FIELD OUTPUT: F-Output-2
** 
*Output, field, variable=PRESELECT
** ----------------------------------------------------------------
*ELEMENT MATRIX OUTPUT,
ELSET=outputElements, STIFFNESS=NO, MASS=YES, OUTPUT FILE=USER DEFINED, FILE NAME=quad8_test0_mass_matrices
** ----------------------------------------------------------------
*End Step
